5FPG_A
  PyMOL2.5          3D                             0

 59 59  0  0  0  0  0  0  0  0999 V2000
   26.6095    6.5315    6.4471 C   0  0  0  0  0  0  0  0  0  0  0  0
   25.5980    7.2421    5.8013 C   0  0  0  0  0  0  0  0  0  0  0  0
   25.6050    8.6315    5.8412 C   0  0  0  0  0  0  0  0  0  0  0  0
   24.6057    9.3584    5.2045 C   0  0  0  0  0  0  0  0  0  0  0  0
   23.5912    8.6936    4.5245 C   0  0  0  0  0  0  0  0  0  0  0  0
   23.5818    7.3035    4.4828 C   0  0  0  0  0  0  0  0  0  0  0  0
   24.5828    6.5785    5.1213 C   0  0  0  0  0  0  0  0  0  0  0  0
   23.6141    4.5501    4.4514 C   0  0  0  0  0  0  0  0  0  0  0  0
   23.6699    3.1554    4.4350 C   0  0  0  0  0  0  0  0  0  0  0  0
   23.6532    2.6965    5.8768 C   0  0  0  0  0  0  0  0  0  0  0  0
   22.2346    2.2946    6.2672 C   0  0  0  0  0  0  0  0  0  0  0  0
   20.7584    0.4784    6.2612 C   0  0  0  0  0  0  0  0  0  0  0  0
   20.3001   -0.4938    5.3857 C   0  0  0  0  0  0  0  0  0  0  0  0
   19.0667   -1.1018    5.5799 C   0  0  0  0  0  0  0  0  0  0  0  0
   18.2704   -0.7534    6.6631 C   0  0  0  0  0  0  0  0  0  0  0  0
   18.7324    0.2196    7.5463 C   0  0  0  0  0  0  0  0  0  0  0  0
   19.9710    0.8274    7.3539 C   0  0  0  0  0  0  0  0  0  0  0  0
   17.0230   -1.3516    6.8775 C   0  0  0  0  0  0  0  0  0  0  0  0
   15.6979   -3.2613    6.3573 C   0  0  0  0  0  0  0  0  0  0  0  0
   15.8131   -4.5339    5.8032 C   0  0  0  0  0  0  0  0  0  0  0  0
   24.5771    5.2397    5.0825 N   0  0  0  0  0  0  0  0  0  0  0  0
   21.9613    1.0035    6.0049 N   0  0  0  0  0  0  0  0  0  0  0  0
   16.8308   -2.5446    6.2498 N   0  0  0  0  0  0  0  0  0  0  0  0
   16.9775   -4.9115    5.2521 N   0  0  0  0  0  0  0  0  0  0  0  0
   21.4670    3.1188    6.7608 O   0  0  0  0  0  0  0  0  0  0  0  0
   16.2135   -0.7804    7.6041 O   0  0  0  0  0  0  0  0  0  0  0  0
   17.1255   -6.1882    4.6912 C   0  0  0  0  0  0  0  0  0  0  0  0
   16.0567   -7.0734    4.7037 C   0  0  0  0  0  0  0  0  0  0  0  0
   14.8539   -6.6796    5.2742 C   0  0  0  0  0  0  0  0  0  0  0  0
   14.7349   -5.4094    5.8247 C   0  0  0  0  0  0  0  0  0  0  0  0
   13.5341   -5.0161    6.3960 C   0  0  0  0  0  0  0  0  0  0  0  0
   13.4116   -3.7471    6.9459 C   0  0  0  0  0  0  0  0  0  0  0  0
   14.4859   -2.8639    6.9290 C   0  0  0  0  0  0  0  0  0  0  0  0
   22.5716    6.6347    3.8059 C   0  0  0  0  0  0  0  0  0  0  0  0
   22.5875    5.2355    3.7824 N   0  0  0  0  0  0  0  0  0  0  0  0
   21.6748    7.2551    3.2349 O   0  0  0  0  0  0  0  0  0  0  0  0
   26.9629    7.1011    7.3066 H   0  0  0  0  0  0  0  0  0  0  0  0
   27.4365    6.3663    5.7559 H   0  0  0  0  0  0  0  0  0  0  0  0
   26.2209    5.5703    6.7832 H   0  0  0  0  0  0  0  0  0  0  0  0
   26.4001    9.1542    6.3732 H   0  0  0  0  0  0  0  0  0  0  0  0
   24.6170   10.4478    5.2387 H   0  0  0  0  0  0  0  0  0  0  0  0
   22.8054    9.2607    4.0248 H   0  0  0  0  0  0  0  0  0  0  0  0
   22.8103    2.9260    3.8768 H   0  0  0  0  0  0  0  0  0  0  0  0
   24.5870    3.0301    3.9400 H   0  0  0  0  0  0  0  0  0  0  0  0
   24.0183    3.4918    6.5265 H   0  0  0  0  0  0  0  0  0  0  0  0
   24.2975    1.8223    5.9768 H   0  0  0  0  0  0  0  0  0  0  0  0
   22.6647    0.4310    5.5839 H   0  0  0  0  0  0  0  0  0  0  0  0
   20.9115   -0.7808    4.5308 H   0  0  0  0  0  0  0  0  0  0  0  0
   18.7209   -1.8595    4.8768 H   0  0  0  0  0  0  0  0  0  0  0  0
   18.1195    0.5049    8.4014 H   0  0  0  0  0  0  0  0  0  0  0  0
   20.3183    1.5874    8.0536 H   0  0  0  0  0  0  0  0  0  0  0  0
   17.5737   -2.9110    5.6899 H   0  0  0  0  0  0  0  0  0  0  0  0
   18.0754   -6.4830    4.2451 H   0  0  0  0  0  0  0  0  0  0  0  0
   16.1605   -8.0677    4.2700 H   0  0  0  0  0  0  0  0  0  0  0  0
   14.0068   -7.3647    5.2925 H   0  0  0  0  0  0  0  0  0  0  0  0
   12.6866   -5.7023    6.4124 H   0  0  0  0  0  0  0  0  0  0  0  0
   12.4659   -3.4408    7.3938 H   0  0  0  0  0  0  0  0  0  0  0  0
   14.3844   -1.8691    7.3636 H   0  0  0  0  0  0  0  0  0  0  0  0
   21.8709    4.7299    3.3022 H   0  0  0  0  0  0  0  0  0  0  0  0
  1 37  1  0  0  0  0
  1 38  1  0  0  0  0
  1 39  1  0  0  0  0
  1  2  1  0  0  0  0
  2  3  4  0  0  0  0
  3  4  4  0  0  0  0
  3 40  1  0  0  0  0
  4  5  4  0  0  0  0
  4 41  1  0  0  0  0
  5  6  4  0  0  0  0
  5 42  1  0  0  0  0
  6 34  4  0  0  0  0
  2  7  4  0  0  0  0
  6  7  4  0  0  0  0
  8 21  4  0  0  0  0
  8 35  4  0  0  0  0
  8  9  1  0  0  0  0
  9 10  1  0  0  0  0
 10 11  1  0  0  0  0
 11 25  2  0  0  0  0
 12 22  1  0  0  0  0
 12 13  4  0  0  0  0
 13 48  1  0  0  0  0
 13 14  4  0  0  0  0
 14 49  1  0  0  0  0
 14 15  4  0  0  0  0
 15 16  4  0  0  0  0
 16 17  4  0  0  0  0
 16 50  1  0  0  0  0
 12 17  4  0  0  0  0
 17 51  1  0  0  0  0
 15 18  1  0  0  0  0
 18 26  2  0  0  0  0
 19 23  1  0  0  0  0
 19 20  4  0  0  0  0
  7 21  4  0  0  0  0
 11 22  1  0  0  0  0
 22 47  1  0  0  0  0
 18 23  1  0  0  0  0
 23 52  1  0  0  0  0
 20 24  4  0  0  0  0
 24 27  4  0  0  0  0
 27 53  1  0  0  0  0
 27 28  4  0  0  0  0
 28 54  1  0  0  0  0
 28 29  4  0  0  0  0
 29 55  1  0  0  0  0
 20 30  4  0  0  0  0
 29 30  4  0  0  0  0
 30 31  4  0  0  0  0
 31 56  1  0  0  0  0
 31 32  4  0  0  0  0
 32 57  1  0  0  0  0
 19 33  4  0  0  0  0
 32 33  4  0  0  0  0
 33 58  1  0  0  0  0
 34 35  4  0  0  0  0
 34 36  2  0  0  0  0
 35 59  1  0  0  0  0
M  END
$$$$
