fragment
  PyMOL2.5          3D                             0

 22 22  0  0  1  0  0  0  0  0999 V2000
   20.2849    9.6010   20.6116 C   0  0  0  0  0  0  0  0  0  0  0  0
   21.3214   10.2557   21.5270 C   0  0  3  0  0  0  0  0  0  0  0  0
   20.8501   11.6584   21.9220 C   0  0  0  0  0  0  0  0  0  0  0  0
   21.6487   12.1645   23.0902 C   0  0  0  0  0  0  0  0  0  0  0  0
   21.7107   13.3609   23.2781 O   0  0  0  0  0  0  0  0  0  0  0  0
   22.2950   11.3463   23.9332 N   0  0  0  0  0  0  0  0  0  0  0  0
   22.9951   11.9110   25.0895 C   0  0  0  0  0  0  0  0  0  0  0  0
   22.3116    9.9770   23.7301 C   0  0  0  0  0  0  0  0  0  0  0  0
   23.0903    9.2022   24.4286 N   0  3  0  0  0  0  0  0  0  0  0  0
   21.4713    9.4599   22.7587 N   0  0  0  0  0  0  0  0  0  0  0  0
   19.3258    9.5496   21.1270 H   0  0  0  0  0  0  0  0  0  0  0  0
   20.1776   10.1927   19.7026 H   0  0  0  0  0  0  0  0  0  0  0  0
   20.6128    8.5941   20.3531 H   0  0  0  0  0  0  0  0  0  0  0  0
   22.2795   10.3200   21.0113 H   0  0  0  0  0  0  0  0  0  0  0  0
   20.9792   12.3341   21.0765 H   0  0  0  0  0  0  0  0  0  0  0  0
   19.7953   11.6217   22.1944 H   0  0  0  0  0  0  0  0  0  0  0  0
   22.3145   11.9568   25.9396 H   0  0  0  0  0  0  0  0  0  0  0  0
   23.8484   11.2811   25.3408 H   0  0  0  0  0  0  0  0  0  0  0  0
   23.3434   12.9154   24.8484 H   0  0  0  0  0  0  0  0  0  0  0  0
   23.0887    8.2449   24.2724 H   0  0  0  0  0  0  0  0  0  0  0  0
   23.6962    9.5979   25.1332 H   0  0  0  0  0  0  0  0  0  0  0  0
   21.0053    8.6182   22.8824 H   0  0  0  0  0  0  0  0  0  0  0  0
  1  2  1  0  0  0  0
  1 11  1  0  0  0  0
  1 12  1  0  0  0  0
  1 13  1  0  0  0  0
  2  3  1  0  0  0  0
  2 10  1  0  0  0  0
  2 14  1  0  0  0  0
  3  4  1  0  0  0  0
  3 15  1  0  0  0  0
  3 16  1  0  0  0  0
  4  5  2  0  0  0  0
  4  6  1  0  0  0  0
  6  7  1  0  0  0  0
  6  8  1  0  0  0  0
  7 17  1  0  0  0  0
  7 18  1  0  0  0  0
  7 19  1  0  0  0  0
  8  9  2  0  0  0  0
  8 10  1  0  0  0  0
  9 20  1  0  0  0  0
  9 21  1  0  0  0  0
 10 22  1  0  0  0  0
M  END
$$$$
