fragment
  PyMOL2.5          3D                             0

 15 15  0  0  0  0  0  0  0  0999 V2000
   17.6827   -4.3602   50.6296 C   0  0  0  0  0  0  0  0  0  0  0  0
   16.9577   -3.0413   50.7075 C   0  0  0  0  0  0  0  0  0  0  0  0
   15.7702   -2.9343   51.4146 C   0  0  0  0  0  0  0  0  0  0  0  0
   15.1353   -1.7033   51.4608 C   0  0  0  0  0  0  0  0  0  0  0  0
   15.6781   -0.6732   50.8327 N   0  0  0  0  0  0  0  0  0  0  0  0
   16.8146   -0.8091   50.1656 C   0  0  0  0  0  0  0  0  0  0  0  0
   17.3542    0.2895   49.5195 N   0  0  0  0  0  0  0  0  0  0  0  0
   17.4441   -1.9732   50.0977 N   0  0  0  0  0  0  0  0  0  0  0  0
   17.3269   -4.9198   49.7646 H   0  0  0  0  0  0  0  0  0  0  0  0
   17.4922   -4.9337   51.5368 H   0  0  0  0  0  0  0  0  0  0  0  0
   18.7534   -4.1810   50.5311 H   0  0  0  0  0  0  0  0  0  0  0  0
   15.3490   -3.7915   51.9187 H   0  0  0  0  0  0  0  0  0  0  0  0
   14.2088   -1.5862   52.0033 H   0  0  0  0  0  0  0  0  0  0  0  0
   16.9009    1.1461   49.5585 H   0  0  0  0  0  0  0  0  0  0  0  0
   18.1858    0.2028   49.0277 H   0  0  0  0  0  0  0  0  0  0  0  0
  1  2  1  0  0  0  0
  1  9  1  0  0  0  0
  1 10  1  0  0  0  0
  1 11  1  0  0  0  0
  2  3  1  0  0  0  0
  2  8  2  0  0  0  0
  3  4  2  0  0  0  0
  3 12  1  0  0  0  0
  4  5  1  0  0  0  0
  4 13  1  0  0  0  0
  5  6  2  0  0  0  0
  6  7  1  0  0  0  0
  6  8  1  0  0  0  0
  7 14  1  0  0  0  0
  7 15  1  0  0  0  0
M  END
$$$$
