fragment
  PyMOL2.5          3D                             0

 12 12  0  0  0  0  0  0  0  0999 V2000
  -18.4193   46.6419   50.0123 C   0  0  0  0  0  0  0  0  0  0  0  0
  -19.1112   47.4084   49.0932 C   0  0  0  0  0  0  0  0  0  0  0  0
  -19.6393   46.8191   47.9597 C   0  0  0  0  0  0  0  0  0  0  0  0
  -19.4752   45.4634   47.7451 C   0  0  0  0  0  0  0  0  0  0  0  0
  -18.7825   44.6971   48.6638 C   0  0  0  0  0  0  0  0  0  0  0  0
  -18.2556   45.2862   49.7979 C   0  0  0  0  0  0  0  0  0  0  0  0
  -18.0029   47.1032   50.8955 H   0  0  0  0  0  0  0  0  0  0  0  0
  -19.2395   48.4676   49.2608 H   0  0  0  0  0  0  0  0  0  0  0  0
  -20.1805   47.4178   47.2421 H   0  0  0  0  0  0  0  0  0  0  0  0
  -19.8884   45.0028   46.8600 H   0  0  0  0  0  0  0  0  0  0  0  0
  -18.6548   43.6378   48.4964 H   0  0  0  0  0  0  0  0  0  0  0  0
  -17.7140   44.6876   50.5154 H   0  0  0  0  0  0  0  0  0  0  0  0
  1  2  1  0  0  0  0
  1  6  2  0  0  0  0
  1  7  1  0  0  0  0
  2  3  2  0  0  0  0
  2  8  1  0  0  0  0
  3  4  1  0  0  0  0
  3  9  1  0  0  0  0
  4  5  2  0  0  0  0
  4 10  1  0  0  0  0
  5  6  1  0  0  0  0
  5 11  1  0  0  0  0
  6 12  1  0  0  0  0
M  END
$$$$
