fragment
  PyMOL2.5          3D                             0

 14 14  0  0  0  0  0  0  0  0999 V2000
   18.3459   -0.6953   48.9827 O   0  0  0  0  0  0  0  0  0  0  0  0
   17.1382   -0.2969   49.4620 C   0  0  0  0  0  0  0  0  0  0  0  0
   16.3521   -1.1820   50.1861 C   0  0  0  0  0  0  0  0  0  0  0  0
   15.1242   -0.7775   50.6737 C   0  0  0  0  0  0  0  0  0  0  0  0
   14.6759    0.5088   50.4420 C   0  0  0  0  0  0  0  0  0  0  0  0
   15.4584    1.3977   49.7184 C   0  0  0  0  0  0  0  0  0  0  0  0
   15.0170    2.6627   49.4908 O   0  0  0  0  0  0  0  0  0  0  0  0
   16.6882    0.9925   49.2233 C   0  0  0  0  0  0  0  0  0  0  0  0
   18.3091   -1.0837   48.0978 H   0  0  0  0  0  0  0  0  0  0  0  0
   16.7005   -2.1879   50.3689 H   0  0  0  0  0  0  0  0  0  0  0  0
   14.5140   -1.4677   51.2373 H   0  0  0  0  0  0  0  0  0  0  0  0
   13.7160    0.8228   50.8244 H   0  0  0  0  0  0  0  0  0  0  0  0
   14.5035    2.7597   48.6773 H   0  0  0  0  0  0  0  0  0  0  0  0
   17.2986    1.6828   48.6600 H   0  0  0  0  0  0  0  0  0  0  0  0
  1  2  1  0  0  0  0
  1  9  1  0  0  0  0
  2  3  1  0  0  0  0
  2  8  2  0  0  0  0
  3  4  2  0  0  0  0
  3 10  1  0  0  0  0
  4  5  1  0  0  0  0
  4 11  1  0  0  0  0
  5  6  2  0  0  0  0
  5 12  1  0  0  0  0
  6  7  1  0  0  0  0
  6  8  1  0  0  0  0
  7 13  1  0  0  0  0
  8 14  1  0  0  0  0
M  END
$$$$
