fragment
  PyMOL2.5          3D                             0

 12 12  0  0  0  0  0  0  0  0999 V2000
  -34.2737   24.9087  -17.7250 Cl  0  0  0  0  0  0  0  0  0  0  0  0
  -34.1833   26.2139  -16.5839 C   0  0  0  0  0  0  0  0  0  0  0  0
  -35.3202   26.9356  -16.2663 C   0  0  0  0  0  0  0  0  0  0  0  0
  -35.2475   27.9746  -15.3578 C   0  0  0  0  0  0  0  0  0  0  0  0
  -34.0392   28.2933  -14.7668 C   0  0  0  0  0  0  0  0  0  0  0  0
  -32.9028   27.5726  -15.0838 C   0  0  0  0  0  0  0  0  0  0  0  0
  -32.9754   26.5293  -15.9875 C   0  0  0  0  0  0  0  0  0  0  0  0
  -36.2641   26.6872  -16.7285 H   0  0  0  0  0  0  0  0  0  0  0  0
  -36.1350   28.5380  -15.1099 H   0  0  0  0  0  0  0  0  0  0  0  0
  -33.9827   29.1057  -14.0576 H   0  0  0  0  0  0  0  0  0  0  0  0
  -31.9589   27.8222  -14.6220 H   0  0  0  0  0  0  0  0  0  0  0  0
  -32.0877   25.9661  -16.2346 H   0  0  0  0  0  0  0  0  0  0  0  0
  1  2  1  0  0  0  0
  2  3  1  0  0  0  0
  2  7  2  0  0  0  0
  3  4  2  0  0  0  0
  3  8  1  0  0  0  0
  4  5  1  0  0  0  0
  4  9  1  0  0  0  0
  5  6  2  0  0  0  0
  5 10  1  0  0  0  0
  6  7  1  0  0  0  0
  6 11  1  0  0  0  0
  7 12  1  0  0  0  0
M  END
$$$$
