fragment
  PyMOL2.5          3D                             0

 12 12  0  0  0  0  0  0  0  0999 V2000
   11.8448   -1.4601   21.9794 F   0  0  0  0  0  0  0  0  0  0  0  0
   10.5519   -1.2603   21.6420 C   0  0  0  0  0  0  0  0  0  0  0  0
    9.9094   -0.0942   22.0215 C   0  0  0  0  0  0  0  0  0  0  0  0
    8.5869    0.1099   21.6762 C   0  0  0  0  0  0  0  0  0  0  0  0
    7.9044   -0.8507   20.9508 C   0  0  0  0  0  0  0  0  0  0  0  0
    6.2431   -0.5929   20.5178 Cl  0  0  0  0  0  0  0  0  0  0  0  0
    8.5450   -2.0163   20.5710 C   0  0  0  0  0  0  0  0  0  0  0  0
    9.8667   -2.2247   20.9212 C   0  0  0  0  0  0  0  0  0  0  0  0
   10.6708   -3.6877   20.4451 Cl  0  0  0  0  0  0  0  0  0  0  0  0
   10.4418    0.6563   22.5870 H   0  0  0  0  0  0  0  0  0  0  0  0
    8.0860    1.0196   21.9723 H   0  0  0  0  0  0  0  0  0  0  0  0
    8.0117   -2.7657   20.0048 H   0  0  0  0  0  0  0  0  0  0  0  0
  1  2  1  0  0  0  0
  2  3  1  0  0  0  0
  2  8  2  0  0  0  0
  3  4  2  0  0  0  0
  3 10  1  0  0  0  0
  4  5  1  0  0  0  0
  4 11  1  0  0  0  0
  5  6  1  0  0  0  0
  5  7  2  0  0  0  0
  7  8  1  0  0  0  0
  7 12  1  0  0  0  0
  8  9  1  0  0  0  0
M  END
$$$$
