fragment
  PyMOL2.5          3D                             0

 21 21  0  0  0  0  0  0  0  0999 V2000
   24.2613    9.7819   58.0598 N   0  3  0  0  0  0  0  0  0  0  0  0
   23.4542    9.2220   58.2904 H   0  0  0  0  0  0  0  0  0  0  0  0
   23.9673   10.7222   57.8418 H   0  0  0  0  0  0  0  0  0  0  0  0
   24.7305    9.3825   57.2608 H   0  0  0  0  0  0  0  0  0  0  0  0
   25.1814    9.8096   59.2046 C   0  0  0  0  0  0  0  0  0  0  0  0
   25.6273    8.3838   59.5351 C   0  0  0  0  0  0  0  0  0  0  0  0
   26.5856    8.4127   60.7275 C   0  0  0  0  0  0  0  0  0  0  0  0
   25.8742    9.0184   61.9391 C   0  0  0  0  0  0  0  0  0  0  0  0
   25.4282   10.4442   61.6085 C   0  0  0  0  0  0  0  0  0  0  0  0
   24.4699   10.4153   60.4162 C   0  0  0  0  0  0  0  0  0  0  0  0
   26.0534   10.4145   58.9555 H   0  0  0  0  0  0  0  0  0  0  0  0
   26.1342    7.9524   58.6721 H   0  0  0  0  0  0  0  0  0  0  0  0
   24.7554    7.7790   59.7843 H   0  0  0  0  0  0  0  0  0  0  0  0
   27.4575    9.0175   60.4783 H   0  0  0  0  0  0  0  0  0  0  0  0
   26.9033    7.3970   60.9631 H   0  0  0  0  0  0  0  0  0  0  0  0
   26.5569    9.0390   62.7886 H   0  0  0  0  0  0  0  0  0  0  0  0
   25.0022    8.4136   62.1883 H   0  0  0  0  0  0  0  0  0  0  0  0
   26.3001   11.0490   61.3594 H   0  0  0  0  0  0  0  0  0  0  0  0
   24.9214   10.8756   62.4717 H   0  0  0  0  0  0  0  0  0  0  0  0
   23.5981    9.8105   60.6653 H   0  0  0  0  0  0  0  0  0  0  0  0
   24.1522   11.4310   60.1807 H   0  0  0  0  0  0  0  0  0  0  0  0
  1  2  1  0  0  0  0
  1  3  1  0  0  0  0
  1  4  1  0  0  0  0
  1  5  1  0  0  0  0
  5  6  1  0  0  0  0
  5 10  1  0  0  0  0
  5 11  1  0  0  0  0
  6  7  1  0  0  0  0
  6 12  1  0  0  0  0
  6 13  1  0  0  0  0
  7  8  1  0  0  0  0
  7 14  1  0  0  0  0
  7 15  1  0  0  0  0
  8  9  1  0  0  0  0
  8 16  1  0  0  0  0
  8 17  1  0  0  0  0
  9 10  1  0  0  0  0
  9 18  1  0  0  0  0
  9 19  1  0  0  0  0
 10 20  1  0  0  0  0
 10 21  1  0  0  0  0
M  END
$$$$
