fragment
  PyMOL2.5          3D                             0

 13 13  0  0  0  0  0  0  0  0999 V2000
  -45.8713  -16.5917  -13.8064 N   0  0  0  0  0  0  0  0  0  0  0  0
  -46.0696  -15.2187  -13.7169 C   0  0  0  0  0  0  0  0  0  0  0  0
  -46.9604  -14.5930  -14.5834 C   0  0  0  0  0  0  0  0  0  0  0  0
  -47.1480  -13.2264  -14.4834 C   0  0  0  0  0  0  0  0  0  0  0  0
  -46.4360  -12.5286  -13.5165 C   0  0  0  0  0  0  0  0  0  0  0  0
  -45.5685  -13.2135  -12.6900 C   0  0  0  0  0  0  0  0  0  0  0  0
  -45.4133  -14.5191  -12.8044 N   0  0  0  0  0  0  0  0  0  0  0  0
  -45.2542  -17.0330  -13.2018 H   0  0  0  0  0  0  0  0  0  0  0  0
  -46.3528  -17.1090  -14.4706 H   0  0  0  0  0  0  0  0  0  0  0  0
  -47.4976  -15.1664  -15.3243 H   0  0  0  0  0  0  0  0  0  0  0  0
  -47.8327  -12.7134  -15.1426 H   0  0  0  0  0  0  0  0  0  0  0  0
  -46.5596  -11.4607  -13.4128 H   0  0  0  0  0  0  0  0  0  0  0  0
  -45.0125  -12.6748  -11.9369 H   0  0  0  0  0  0  0  0  0  0  0  0
  1  2  1  0  0  0  0
  1  8  1  0  0  0  0
  1  9  1  0  0  0  0
  2  3  1  0  0  0  0
  2  7  2  0  0  0  0
  3  4  2  0  0  0  0
  3 10  1  0  0  0  0
  4  5  1  0  0  0  0
  4 11  1  0  0  0  0
  5  6  2  0  0  0  0
  5 12  1  0  0  0  0
  6  7  1  0  0  0  0
  6 13  1  0  0  0  0
M  END
$$$$
