4FNT_GLAGLCFRU_1_F_maxlig
  PyMOL2.5          3D                             0

 34 36  0  0  0  0  0  0  0  0999 V2000
   30.0312   58.9653   59.3863 C   0  0  0  0  0  0  0  0  0  0  0  0
   28.6569   59.1679   59.3010 O   0  0  0  0  0  0  0  0  0  0  0  0
   30.7313   58.2900   58.1922 C   0  0  0  0  0  0  0  0  0  0  0  0
   30.1914   56.9803   57.9090 O   0  0  0  0  0  0  0  0  0  0  0  0
   32.2287   58.3060   58.4577 C   0  0  0  0  0  0  0  0  0  0  0  0
   32.7509   57.0523   58.7429 O   0  0  0  0  0  0  0  0  0  0  0  0
   32.8348   58.8313   57.2649 C   0  0  0  0  0  0  0  0  0  0  0  0
   33.9836   59.6294   57.5850 O   0  0  0  0  0  0  0  0  0  0  0  0
   31.8270   59.7169   56.7253 C   0  0  0  0  0  0  0  0  0  0  0  0
   30.5394   59.2503   57.1013 O   0  0  0  0  0  0  0  0  0  0  0  0
   31.9472   59.7864   55.2258 C   0  0  0  0  0  0  0  0  0  0  0  0
   30.8233   60.1935   54.5404 O   0  0  0  0  0  0  0  0  0  0  0  0
   30.5319   56.3855   56.7237 C   0  0  0  0  0  0  0  0  0  0  0  0
   29.5911   56.6578   55.5619 C   0  0  0  0  0  0  0  0  0  0  0  0
   28.9225   57.9175   55.5873 O   0  0  0  0  0  0  0  0  0  0  0  0
   28.6192   55.6050   55.2390 C   0  0  0  0  0  0  0  0  0  0  0  0
   28.0352   55.9425   53.9765 O   0  0  0  0  0  0  0  0  0  0  0  0
   29.2119   54.2361   55.2168 C   0  0  0  0  0  0  0  0  0  0  0  0
   28.2081   53.2948   55.1187 O   0  0  0  0  0  0  0  0  0  0  0  0
   30.1086   53.8731   56.3888 C   0  0  0  0  0  0  0  0  0  0  0  0
   30.9464   54.9515   56.9414 O   0  0  0  0  0  0  0  0  0  0  0  0
   30.9624   52.6770   56.0113 C   0  0  0  0  0  0  0  0  0  0  0  0
   30.5371   51.3718   56.3311 O   0  0  0  0  0  0  0  0  0  0  0  0
   30.4175   50.3212   55.4268 C   0  0  0  0  0  0  0  0  0  0  0  0
   30.4411   49.0343   56.2023 C   0  0  0  0  0  0  0  0  0  0  0  0
   29.2445   48.7817   56.9016 O   0  0  0  0  0  0  0  0  0  0  0  0
   31.6511   48.9354   57.0149 C   0  0  0  0  0  0  0  0  0  0  0  0
   31.6135   47.7879   57.8579 O   0  0  0  0  0  0  0  0  0  0  0  0
   32.8536   48.9320   56.1977 C   0  0  0  0  0  0  0  0  0  0  0  0
   32.8507   47.7133   55.4093 O   0  0  0  0  0  0  0  0  0  0  0  0
   32.8197   50.1229   55.2544 C   0  0  0  0  0  0  0  0  0  0  0  0
   31.5728   50.2668   54.5406 O   0  0  0  0  0  0  0  0  0  0  0  0
   33.9533   50.1293   54.2977 C   0  0  0  0  0  0  0  0  0  0  0  0
   34.1457   51.3045   53.6174 O   0  0  0  0  0  0  0  0  0  0  0  0
  1  2  1  0  0  0  0
  1  3  1  0  0  0  0
  3  4  1  0  0  0  0
  3  5  1  0  0  0  0
  3 10  1  0  0  0  0
  4 13  1  0  0  0  0
  5  6  1  0  0  0  0
  5  7  1  0  0  0  0
  7  8  1  0  0  0  0
  7  9  1  0  0  0  0
  9 10  1  0  0  0  0
  9 11  1  0  0  0  0
 11 12  1  0  0  0  0
 13 14  1  0  0  0  0
 13 21  1  0  0  0  0
 14 15  1  0  0  0  0
 14 16  1  0  0  0  0
 16 17  1  0  0  0  0
 16 18  1  0  0  0  0
 18 19  1  0  0  0  0
 18 20  1  0  0  0  0
 20 21  1  0  0  0  0
 20 22  1  0  0  0  0
 22 23  1  0  0  0  0
 23 24  1  0  0  0  0
 24 25  1  0  0  0  0
 24 32  1  0  0  0  0
 25 26  1  0  0  0  0
 25 27  1  0  0  0  0
 27 28  1  0  0  0  0
 27 29  1  0  0  0  0
 29 30  1  0  0  0  0
 29 31  1  0  0  0  0
 31 32  1  0  0  0  0
 31 33  1  0  0  0  0
 33 34  1  0  0  0  0
M  END
$$$$
