fragment
  PyMOL2.5          3D                             0

 12 12  0  0  0  0  0  0  0  0999 V2000
   36.9848   40.9033   -0.7467 C   0  0  0  0  0  0  0  0  0  0  0  0
   37.4284   41.8797   -1.6189 C   0  0  0  0  0  0  0  0  0  0  0  0
   37.8720   43.0941   -1.1294 C   0  0  0  0  0  0  0  0  0  0  0  0
   37.8724   43.3318    0.2324 C   0  0  0  0  0  0  0  0  0  0  0  0
   37.4296   42.3549    1.1046 C   0  0  0  0  0  0  0  0  0  0  0  0
   36.9848   41.1412    0.6150 C   0  0  0  0  0  0  0  0  0  0  0  0
   36.6425   39.9530   -1.1290 H   0  0  0  0  0  0  0  0  0  0  0  0
   37.4281   41.6941   -2.6829 H   0  0  0  0  0  0  0  0  0  0  0  0
   38.2179   43.8571   -1.8108 H   0  0  0  0  0  0  0  0  0  0  0  0
   38.2183   44.2806    0.6149 H   0  0  0  0  0  0  0  0  0  0  0  0
   37.4293   42.5409    2.1685 H   0  0  0  0  0  0  0  0  0  0  0  0
   36.6392   40.3779    1.2964 H   0  0  0  0  0  0  0  0  0  0  0  0
  1  2  1  0  0  0  0
  1  6  2  0  0  0  0
  1  7  1  0  0  0  0
  2  3  2  0  0  0  0
  2  8  1  0  0  0  0
  3  4  1  0  0  0  0
  3  9  1  0  0  0  0
  4  5  2  0  0  0  0
  4 10  1  0  0  0  0
  5  6  1  0  0  0  0
  5 11  1  0  0  0  0
  6 12  1  0  0  0  0
M  END
$$$$
