fragment
  PyMOL2.5          3D                             0

 12 12  0  0  0  0  0  0  0  0999 V2000
    9.9330   23.4613   -6.2992 Cl  0  0  0  0  0  0  0  0  0  0  0  0
    8.7698   22.3408   -5.6629 C   0  0  0  0  0  0  0  0  0  0  0  0
    7.4386   22.7056   -5.5658 C   0  0  0  0  0  0  0  0  0  0  0  0
    6.5125   21.8137   -5.0587 C   0  0  0  0  0  0  0  0  0  0  0  0
    6.9154   20.5569   -4.6481 C   0  0  0  0  0  0  0  0  0  0  0  0
    8.2461   20.1907   -4.7450 C   0  0  0  0  0  0  0  0  0  0  0  0
    8.7521   18.6121   -4.2294 Cl  0  0  0  0  0  0  0  0  0  0  0  0
    9.1726   21.0808   -5.2579 C   0  0  0  0  0  0  0  0  0  0  0  0
    7.1233   23.6876   -5.8861 H   0  0  0  0  0  0  0  0  0  0  0  0
    5.4737   22.0991   -4.9827 H   0  0  0  0  0  0  0  0  0  0  0  0
    6.1915   19.8607   -4.2512 H   0  0  0  0  0  0  0  0  0  0  0  0
   10.2114   20.7955   -5.3337 H   0  0  0  0  0  0  0  0  0  0  0  0
  1  2  1  0  0  0  0
  2  3  1  0  0  0  0
  2  8  2  0  0  0  0
  3  4  2  0  0  0  0
  3  9  1  0  0  0  0
  4  5  1  0  0  0  0
  4 10  1  0  0  0  0
  5  6  2  0  0  0  0
  5 11  1  0  0  0  0
  6  7  1  0  0  0  0
  6  8  1  0  0  0  0
  8 12  1  0  0  0  0
M  END
$$$$
