fragment
  PyMOL2.5          3D                             0

 12 12  0  0  0  0  0  0  0  0999 V2000
   14.0364   10.5995   30.6857 F   0  0  0  0  0  0  0  0  0  0  0  0
   15.2770   11.1256   30.7830 C   0  0  0  0  0  0  0  0  0  0  0  0
   15.7878   11.8910   29.7482 C   0  0  0  0  0  0  0  0  0  0  0  0
   17.0570   12.4290   29.8473 C   0  0  0  0  0  0  0  0  0  0  0  0
   17.8178   12.2038   30.9789 C   0  0  0  0  0  0  0  0  0  0  0  0
   17.3088   11.4391   32.0151 C   0  0  0  0  0  0  0  0  0  0  0  0
   18.0527   11.2193   33.1213 F   0  0  0  0  0  0  0  0  0  0  0  0
   16.0356   10.9047   31.9195 C   0  0  0  0  0  0  0  0  0  0  0  0
   15.1943   12.0673   28.8632 H   0  0  0  0  0  0  0  0  0  0  0  0
   17.4548   13.0254   29.0395 H   0  0  0  0  0  0  0  0  0  0  0  0
   18.8098   12.6241   31.0549 H   0  0  0  0  0  0  0  0  0  0  0  0
   15.6376   10.3085   32.7274 H   0  0  0  0  0  0  0  0  0  0  0  0
  1  2  1  0  0  0  0
  2  3  1  0  0  0  0
  2  8  2  0  0  0  0
  3  4  2  0  0  0  0
  3  9  1  0  0  0  0
  4  5  1  0  0  0  0
  4 10  1  0  0  0  0
  5  6  2  0  0  0  0
  5 11  1  0  0  0  0
  6  7  1  0  0  0  0
  6  8  1  0  0  0  0
  8 12  1  0  0  0  0
M  END
$$$$
